Lugduname
     RDKit          3D

 42 44  0  0  0  0  0  0  0  0999 V2000
    7.4301   -2.1147    2.0523 N   0  0  0  0  0  0  0  0  0  0  0  0
    6.3733   -1.8861    1.6306 C   0  0  0  0  0  0  0  0  0  0  0  0
    5.0685   -1.6067    1.1069 C   0  0  0  0  0  0  0  0  0  0  0  0
    4.3247   -2.6176    0.4946 C   0  0  0  0  0  0  0  0  0  0  0  0
    3.0520   -2.3398   -0.0165 C   0  0  0  0  0  0  0  0  0  0  0  0
    2.4959   -1.0542    0.0794 C   0  0  0  0  0  0  0  0  0  0  0  0
    3.2588   -0.0494    0.6870 C   0  0  0  0  0  0  0  0  0  0  0  0
    4.5321   -0.3211    1.2020 C   0  0  0  0  0  0  0  0  0  0  0  0
    1.2212   -0.8326   -0.4932 N   0  0  0  0  0  0  0  0  0  0  0  0
    0.5918    0.3708   -0.6950 C   0  0  0  0  0  0  0  0  0  0  0  0
   -0.6467    0.6488   -0.4674 N   0  0  0  0  0  0  0  0  0  0  0  0
   -1.5053   -0.3734    0.1321 C   0  0  0  0  0  0  0  0  0  0  0  0
   -2.8961    0.1181    0.4374 C   0  0  0  0  0  0  0  0  0  0  0  0
   -3.2251    1.4820    0.5159 C   0  0  0  0  0  0  0  0  0  0  0  0
   -4.5313    1.9008    0.8321 C   0  0  0  0  0  0  0  0  0  0  0  0
   -5.5341    0.9644    1.0868 C   0  0  0  0  0  0  0  0  0  0  0  0
   -5.1937   -0.3689    1.0197 C   0  0  0  0  0  0  0  0  0  0  0  0
   -6.0387   -1.4101    1.2479 O   0  0  0  0  0  0  0  0  0  0  0  0
   -5.1525   -2.5273    1.0456 C   0  0  0  0  0  0  0  0  0  0  0  0
   -3.8039   -2.1400    0.7116 O   0  0  0  0  0  0  0  0  0  0  0  0
   -3.9162   -0.7809    0.7091 C   0  0  0  0  0  0  0  0  0  0  0  0
    1.3997    1.3112   -1.2686 N   0  0  0  0  0  0  0  0  0  0  0  0
    0.8570    2.5222   -1.8795 C   0  0  0  0  0  0  0  0  0  0  0  0
    1.9343    3.2808   -2.6377 C   0  0  0  0  0  0  0  0  0  0  0  0
    1.8780    4.4448   -3.0029 O   0  0  0  0  0  0  0  0  0  0  0  0
    3.0148    2.5263   -2.9529 O   0  0  0  0  0  0  0  0  0  0  0  0
    4.7286   -3.6244    0.4048 H   0  0  0  0  0  0  0  0  0  0  0  0
    2.4984   -3.1393   -0.5050 H   0  0  0  0  0  0  0  0  0  0  0  0
    2.8640    0.9589    0.7929 H   0  0  0  0  0  0  0  0  0  0  0  0
    5.0947    0.4804    1.6774 H   0  0  0  0  0  0  0  0  0  0  0  0
    0.6018   -1.6026   -0.2745 H   0  0  0  0  0  0  0  0  0  0  0  0
   -1.0671   -0.7280    1.0735 H   0  0  0  0  0  0  0  0  0  0  0  0
   -1.5870   -1.2182   -0.5633 H   0  0  0  0  0  0  0  0  0  0  0  0
   -2.4614    2.2350    0.3285 H   0  0  0  0  0  0  0  0  0  0  0  0
   -4.7565    2.9635    0.8800 H   0  0  0  0  0  0  0  0  0  0  0  0
   -6.5433    1.2729    1.3331 H   0  0  0  0  0  0  0  0  0  0  0  0
   -5.5495   -3.1480    0.2340 H   0  0  0  0  0  0  0  0  0  0  0  0
   -5.1270   -3.1256    1.9637 H   0  0  0  0  0  0  0  0  0  0  0  0
    2.1905    0.9322   -1.7847 H   0  0  0  0  0  0  0  0  0  0  0  0
    0.4613    3.1795   -1.0991 H   0  0  0  0  0  0  0  0  0  0  0  0
    0.0690    2.2685   -2.5962 H   0  0  0  0  0  0  0  0  0  0  0  0
    3.5952    3.1476   -3.4423 H   0  0  0  0  0  0  0  0  0  0  0  0
  1  2  3  0
  2  3  1  0
  3  4  1  0
  4  5  2  0
  5  6  1  0
  6  7  2  0
  7  8  1  0
  6  9  1  0
  9 10  1  0
 10 11  2  3
 11 12  1  0
 12 13  1  0
 13 14  2  0
 14 15  1  0
 15 16  2  0
 16 17  1  0
 17 18  1  0
 18 19  1  0
 19 20  1  0
 20 21  1  0
 10 22  1  0
 22 23  1  0
 23 24  1  0
 24 25  2  0
 24 26  1  0
  8  3  2  0
 13 21  1  0
 21 17  2  0
  4 27  1  0
  5 28  1  0
  7 29  1  0
  8 30  1  0
  9 31  1  0
 12 32  1  0
 12 33  1  0
 14 34  1  0
 15 35  1  0
 16 36  1  0
 19 37  1  0
 19 38  1  0
 22 39  1  0
 23 40  1  0
 23 41  1  0
 26 42  1  0
M  END
>  <MMFF94_dE_kcal_mol>  (1) 
0.50

$$$$
